<?xml version="1.0" encoding="iso-8859-1"?>

<configuration xmlns:xsi="http://www.w3.org/2001/XMLSchema-instance" xsi:noNamespaceSchemaLocation="http://sumo.sf.net/xsd/sumoConfiguration.xsd">

    <input>
        <net-file value="intelligent_traffic.net.xml"/>
        <route-files value="intelligent_traffic.rou.xml"/>
        <additional-files value="Area_Detector.xml"/>


    </input>

    <time>
        <step-length value="0.1"/>
    </time>



    <report>
        <verbose value="False"/>
        <no-step-log value="true"/>
        <duration-log.statistics value="true"/>
        <no-warnings value="true"/>
    </report>
    <processing>
        <collision.action value="warn"/>

    </processing>
    <output>

        <fcd-output value="Output/fcd.xml" />

	    <fcd-output.acceleration value="true"/>
        <fcd-output.distance value="true"/>


        <fcd-output.attributes value="all"/>
        <fcd-output.filter-edges.input-file value="Edge.txt"/>


        <device.fcd.period value="0.1"/>

        
        <tripinfo-output value="Output/tripinfo.xml"/>
        <emission-output value="Output/Emission.xml"/>
        <device.emissions.period value="100"/>
        <statistic-output value="Output/statistic.xml"/>
    </output>
</configuration>
