<routes>
            <vType id="CVs" color="cyan" maxSpeed="20" accel="2.5" decel="3" minGap="0.50" tau="1" scale="1"/>
            <vType id="non-CV" color="magenta" maxSpeed="20" accel="2.5" decel="3" minGap="2.5" tau="1" />
    
            <vType id="t_catchup" minGap="2.5" color="red" tau="1" maxSpeed="20" accel="2.5" decel="3"/>
            <vType id="t_catchupFollower" minGap="0.50" color="blue" tau="0.1" maxSpeed="20" accel="2.5" decel="3"/>
            <vType id="t_follower" minGap="0.50" color="green" tau="0.1" maxSpeed="20" accel="2.5" decel="3"/>
            <vType id="t_leader" minGap="2.5" color="yellow" tau="1" maxSpeed="20" accel="2.5" decel="3"/>

            <route id="W_N" edges="end4_junction junction_end1"/>
            <route id="W_E" edges="end4_junction junction_end2"/>
            <route id="W_S" edges="end4_junction junction_end3"/>

            <route id="N_W" edges="end1_junction junction_end4"/>
            <route id="N_E" edges="end1_junction junction_end2"/>
            <route id="N_S" edges="end1_junction junction_end3"/>

            <route id="E_W" edges="end2_junction junction_end4"/>
            <route id="E_N" edges="end2_junction junction_end1"/>
            <route id="E_S" edges="end2_junction junction_end3"/>

            <route id="S_W" edges="end3_junction junction_end4"/>
            <route id="S_N" edges="end3_junction junction_end1"/>
            <route id="S_E" edges="end3_junction junction_end2"/>
            
            <flow id="f_0n" begin="0.00" departLane="0" arrivalLane="0" from="end1_junction" to="junction_end4" end="3600.00" probability="0.01111111111111" type="CVs" departSpeed="5"/>
            <flow id="f_1n" begin="0.00" departLane="1" arrivalLane="1" from="end1_junction" to="junction_end3" end="3600.00" probability="0.01111111111111" type="CVs" departSpeed="5"/>
            <flow id="f_2n" begin="0.00" departLane="2" arrivalLane="2" from="end1_junction" to="junction_end2" end="3600.00" probability="0.01111111111111" type="CVs" departSpeed="5"/>
            
            <flow id="f_0E" begin="0.00" departLane="0" arrivalLane="0" from="end2_junction" to="junction_end1" end="3600.00" probability="0.01111111111111" type="CVs" departSpeed="5"/>
            <flow id="f_1E" begin="0.00" departLane="1" arrivalLane="1" from="end2_junction" to="junction_end4" end="3600.00" probability="0.01111111111111" type="CVs" departSpeed="5"/>
            <flow id="f_2E" begin="0.00" departLane="2" arrivalLane="2" from="end2_junction" to="junction_end3" end="3600.00" probability="0.01111111111111" type="CVs" departSpeed="5"/>            
            
            <flow id="f_0S" begin="0.00" departLane="0" arrivalLane="0" from="end3_junction" to="junction_end2" end="3600.00" probability="0.01111111111111" type="CVs" departSpeed="5"/>
            <flow id="f_1S" begin="0.00" departLane="1" arrivalLane="1" from="end3_junction" to="junction_end1" end="3600.00" probability="0.01111111111111" type="CVs" departSpeed="5"/>
            <flow id="f_2S" begin="0.00" departLane="2" arrivalLane="2" from="end3_junction" to="junction_end4" end="3600.00" probability="0.01111111111111" type="CVs" departSpeed="5"/>

            <flow id="f_0W" begin="0.00" departLane="0" arrivalLane="0" from="end4_junction" to="junction_end3" end="3600.00" probability="0.01111111111111" type="CVs" departSpeed="5"/>
            <flow id="f_1W" begin="0.00" departLane="1" arrivalLane="1" from="end4_junction" to="junction_end2" end="3600.00" probability="0.01111111111111" type="CVs" departSpeed="5"/>
            <flow id="f_2W" begin="0.00" departLane="2" arrivalLane="2" from="end4_junction" to="junction_end1" end="3600.00" probability="0.01111111111111" type="CVs" departSpeed="5"/>




            
    <vehicle id="S_N_0" type="non-CV" route="S_N" depart="37.0" departLane="1" arrivalLane="1" departSpeed="5" />
    <vehicle id="E_W_1" type="non-CV" route="E_W" depart="49.0" departLane="1" arrivalLane="1" departSpeed="5" />
    <vehicle id="S_E_2" type="non-CV" route="S_E" depart="73.0" departLane="0" arrivalLane="0" departSpeed="5" />
    <vehicle id="N_E_3" type="non-CV" route="N_E" depart="75.0" departLane="2" arrivalLane="2" departSpeed="5" />
    <vehicle id="S_N_4" type="non-CV" route="S_N" depart="75.0" departLane="1" arrivalLane="1" departSpeed="5" />
    <vehicle id="S_N_5" type="non-CV" route="S_N" depart="80.0" departLane="1" arrivalLane="1" departSpeed="5" />
    <vehicle id="S_E_6" type="non-CV" route="S_E" depart="96.0" departLane="0" arrivalLane="0" departSpeed="5" />
    <vehicle id="W_N_7" type="non-CV" route="W_N" depart="103.0" departLane="2" arrivalLane="2" departSpeed="5" />
    <vehicle id="N_E_8" type="non-CV" route="N_E" depart="103.0" departLane="2" arrivalLane="2" departSpeed="5" />
    <vehicle id="S_E_9" type="non-CV" route="S_E" depart="107.0" departLane="0" arrivalLane="0" departSpeed="5" />
    <vehicle id="S_E_10" type="non-CV" route="S_E" depart="132.0" departLane="0" arrivalLane="0" departSpeed="5" />
    <vehicle id="E_N_11" type="non-CV" route="E_N" depart="132.0" departLane="0" arrivalLane="0" departSpeed="5" />
    <vehicle id="E_W_12" type="non-CV" route="E_W" depart="133.0" departLane="1" arrivalLane="1" departSpeed="5" />
    <vehicle id="S_W_13" type="non-CV" route="S_W" depart="137.0" departLane="2" arrivalLane="2" departSpeed="5" />
    <vehicle id="E_W_14" type="non-CV" route="E_W" depart="137.0" departLane="1" arrivalLane="1" departSpeed="5" />
    <vehicle id="E_W_15" type="non-CV" route="E_W" depart="139.0" departLane="1" arrivalLane="1" departSpeed="5" />
    <vehicle id="E_S_16" type="non-CV" route="E_S" depart="140.0" departLane="2" arrivalLane="2" departSpeed="5" />
    <vehicle id="E_S_17" type="non-CV" route="E_S" depart="149.0" departLane="2" arrivalLane="2" departSpeed="5" />
    <vehicle id="E_W_18" type="non-CV" route="E_W" depart="149.0" departLane="1" arrivalLane="1" departSpeed="5" />
    <vehicle id="E_N_19" type="non-CV" route="E_N" depart="149.0" departLane="0" arrivalLane="0" departSpeed="5" />
    <vehicle id="W_N_20" type="non-CV" route="W_N" depart="155.0" departLane="2" arrivalLane="2" departSpeed="5" />
    <vehicle id="E_W_21" type="non-CV" route="E_W" depart="159.0" departLane="1" arrivalLane="1" departSpeed="5" />
    <vehicle id="N_S_22" type="non-CV" route="N_S" depart="160.0" departLane="1" arrivalLane="1" departSpeed="5" />
    <vehicle id="N_W_23" type="non-CV" route="N_W" depart="167.0" departLane="0" arrivalLane="0" departSpeed="5" />
    <vehicle id="E_N_24" type="non-CV" route="E_N" depart="173.0" departLane="0" arrivalLane="0" departSpeed="5" />
    <vehicle id="E_N_25" type="non-CV" route="E_N" depart="176.0" departLane="0" arrivalLane="0" departSpeed="5" />
    <vehicle id="E_N_26" type="non-CV" route="E_N" depart="179.0" departLane="0" arrivalLane="0" departSpeed="5" />
    <vehicle id="W_E_27" type="non-CV" route="W_E" depart="187.0" departLane="1" arrivalLane="1" departSpeed="5" />
    <vehicle id="W_E_28" type="non-CV" route="W_E" depart="188.0" departLane="1" arrivalLane="1" departSpeed="5" />
    <vehicle id="E_W_29" type="non-CV" route="E_W" depart="190.0" departLane="1" arrivalLane="1" departSpeed="5" />
    <vehicle id="N_W_30" type="non-CV" route="N_W" depart="190.0" departLane="0" arrivalLane="0" departSpeed="5" />
    <vehicle id="S_N_31" type="non-CV" route="S_N" depart="199.0" departLane="1" arrivalLane="1" departSpeed="5" />
    <vehicle id="E_W_32" type="non-CV" route="E_W" depart="208.0" departLane="1" arrivalLane="1" departSpeed="5" />
    <vehicle id="N_E_33" type="non-CV" route="N_E" depart="209.0" departLane="2" arrivalLane="2" departSpeed="5" />
    <vehicle id="S_E_34" type="non-CV" route="S_E" depart="209.0" departLane="0" arrivalLane="0" departSpeed="5" />
    <vehicle id="E_S_35" type="non-CV" route="E_S" depart="209.0" departLane="2" arrivalLane="2" departSpeed="5" />
    <vehicle id="E_W_36" type="non-CV" route="E_W" depart="212.0" departLane="1" arrivalLane="1" departSpeed="5" />
    <vehicle id="W_E_37" type="non-CV" route="W_E" depart="212.0" departLane="1" arrivalLane="1" departSpeed="5" />
    <vehicle id="E_W_38" type="non-CV" route="E_W" depart="219.0" departLane="1" arrivalLane="1" departSpeed="5" />
    <vehicle id="N_E_39" type="non-CV" route="N_E" depart="222.0" departLane="2" arrivalLane="2" departSpeed="5" />
    <vehicle id="S_N_40" type="non-CV" route="S_N" depart="222.0" departLane="1" arrivalLane="1" departSpeed="5" />
    <vehicle id="E_N_41" type="non-CV" route="E_N" depart="225.0" departLane="0" arrivalLane="0" departSpeed="5" />
    <vehicle id="W_N_42" type="non-CV" route="W_N" depart="225.0" departLane="2" arrivalLane="2" departSpeed="5" />
    <vehicle id="S_W_43" type="non-CV" route="S_W" depart="225.0" departLane="2" arrivalLane="2" departSpeed="5" />
    <vehicle id="E_W_44" type="non-CV" route="E_W" depart="230.0" departLane="1" arrivalLane="1" departSpeed="5" />
    <vehicle id="N_W_45" type="non-CV" route="N_W" depart="235.0" departLane="0" arrivalLane="0" departSpeed="5" />
    <vehicle id="W_S_46" type="non-CV" route="W_S" depart="236.0" departLane="0" arrivalLane="0" departSpeed="5" />
    <vehicle id="E_W_47" type="non-CV" route="E_W" depart="240.0" departLane="1" arrivalLane="1" departSpeed="5" />
    <vehicle id="N_E_48" type="non-CV" route="N_E" depart="246.0" departLane="2" arrivalLane="2" departSpeed="5" />
    <vehicle id="W_S_49" type="non-CV" route="W_S" depart="246.0" departLane="0" arrivalLane="0" departSpeed="5" />
    <vehicle id="W_E_50" type="non-CV" route="W_E" depart="247.0" departLane="1" arrivalLane="1" departSpeed="5" />
    <vehicle id="E_N_51" type="non-CV" route="E_N" depart="247.0" departLane="0" arrivalLane="0" departSpeed="5" />
    <vehicle id="E_W_52" type="non-CV" route="E_W" depart="251.0" departLane="1" arrivalLane="1" departSpeed="5" />
    <vehicle id="S_W_53" type="non-CV" route="S_W" depart="254.0" departLane="2" arrivalLane="2" departSpeed="5" />
    <vehicle id="W_S_54" type="non-CV" route="W_S" depart="255.0" departLane="0" arrivalLane="0" departSpeed="5" />
    <vehicle id="E_N_55" type="non-CV" route="E_N" depart="261.0" departLane="0" arrivalLane="0" departSpeed="5" />
    <vehicle id="N_S_56" type="non-CV" route="N_S" depart="273.0" departLane="1" arrivalLane="1" departSpeed="5" />
    <vehicle id="E_W_57" type="non-CV" route="E_W" depart="279.0" departLane="1" arrivalLane="1" departSpeed="5" />
    <vehicle id="S_N_58" type="non-CV" route="S_N" depart="280.0" departLane="1" arrivalLane="1" departSpeed="5" />
    <vehicle id="E_W_59" type="non-CV" route="E_W" depart="280.0" departLane="1" arrivalLane="1" departSpeed="5" />
    <vehicle id="W_E_60" type="non-CV" route="W_E" depart="282.0" departLane="1" arrivalLane="1" departSpeed="5" />
    <vehicle id="S_W_61" type="non-CV" route="S_W" depart="291.0" departLane="2" arrivalLane="2" departSpeed="5" />
    <vehicle id="E_W_62" type="non-CV" route="E_W" depart="298.0" departLane="1" arrivalLane="1" departSpeed="5" />
    <vehicle id="W_E_63" type="non-CV" route="W_E" depart="298.0" departLane="1" arrivalLane="1" departSpeed="5" />
    <vehicle id="S_W_64" type="non-CV" route="S_W" depart="300.0" departLane="2" arrivalLane="2" departSpeed="5" />
    <vehicle id="N_S_65" type="non-CV" route="N_S" depart="301.0" departLane="1" arrivalLane="1" departSpeed="5" />
    <vehicle id="S_E_66" type="non-CV" route="S_E" depart="302.0" departLane="0" arrivalLane="0" departSpeed="5" />
    <vehicle id="N_W_67" type="non-CV" route="N_W" depart="305.0" departLane="0" arrivalLane="0" departSpeed="5" />
    <vehicle id="S_N_68" type="non-CV" route="S_N" depart="307.0" departLane="1" arrivalLane="1" departSpeed="5" />
    <vehicle id="E_W_69" type="non-CV" route="E_W" depart="307.0" departLane="1" arrivalLane="1" departSpeed="5" />
    <vehicle id="E_S_70" type="non-CV" route="E_S" depart="310.0" departLane="2" arrivalLane="2" departSpeed="5" />
    <vehicle id="E_N_71" type="non-CV" route="E_N" depart="311.0" departLane="0" arrivalLane="0" departSpeed="5" />
    <vehicle id="E_W_72" type="non-CV" route="E_W" depart="312.0" departLane="1" arrivalLane="1" departSpeed="5" />
    <vehicle id="W_E_73" type="non-CV" route="W_E" depart="317.0" departLane="1" arrivalLane="1" departSpeed="5" />
    <vehicle id="E_S_74" type="non-CV" route="E_S" depart="317.0" departLane="2" arrivalLane="2" departSpeed="5" />
    <vehicle id="S_E_75" type="non-CV" route="S_E" depart="323.0" departLane="0" arrivalLane="0" departSpeed="5" />
    <vehicle id="W_E_76" type="non-CV" route="W_E" depart="326.0" departLane="1" arrivalLane="1" departSpeed="5" />
    <vehicle id="W_S_77" type="non-CV" route="W_S" depart="327.0" departLane="0" arrivalLane="0" departSpeed="5" />
    <vehicle id="W_N_78" type="non-CV" route="W_N" depart="332.0" departLane="2" arrivalLane="2" departSpeed="5" />
    <vehicle id="S_E_79" type="non-CV" route="S_E" depart="336.0" departLane="0" arrivalLane="0" departSpeed="5" />
    <vehicle id="E_W_80" type="non-CV" route="E_W" depart="337.0" departLane="1" arrivalLane="1" departSpeed="5" />
    <vehicle id="S_N_81" type="non-CV" route="S_N" depart="340.0" departLane="1" arrivalLane="1" departSpeed="5" />
    <vehicle id="S_W_82" type="non-CV" route="S_W" depart="340.0" departLane="2" arrivalLane="2" departSpeed="5" />
    <vehicle id="W_N_83" type="non-CV" route="W_N" depart="341.0" departLane="2" arrivalLane="2" departSpeed="5" />
    <vehicle id="N_S_84" type="non-CV" route="N_S" depart="343.0" departLane="1" arrivalLane="1" departSpeed="5" />
    <vehicle id="W_S_85" type="non-CV" route="W_S" depart="345.0" departLane="0" arrivalLane="0" departSpeed="5" />
    <vehicle id="E_N_86" type="non-CV" route="E_N" depart="347.0" departLane="0" arrivalLane="0" departSpeed="5" />
    <vehicle id="S_N_87" type="non-CV" route="S_N" depart="349.0" departLane="1" arrivalLane="1" departSpeed="5" />
    <vehicle id="E_N_88" type="non-CV" route="E_N" depart="350.0" departLane="0" arrivalLane="0" departSpeed="5" />
    <vehicle id="E_N_89" type="non-CV" route="E_N" depart="357.0" departLane="0" arrivalLane="0" departSpeed="5" />
    <vehicle id="N_S_90" type="non-CV" route="N_S" depart="358.0" departLane="1" arrivalLane="1" departSpeed="5" />
    <vehicle id="N_W_91" type="non-CV" route="N_W" depart="365.0" departLane="0" arrivalLane="0" departSpeed="5" />
    <vehicle id="S_W_92" type="non-CV" route="S_W" depart="377.0" departLane="2" arrivalLane="2" departSpeed="5" />
    <vehicle id="S_E_93" type="non-CV" route="S_E" depart="379.0" departLane="0" arrivalLane="0" departSpeed="5" />
    <vehicle id="S_N_94" type="non-CV" route="S_N" depart="380.0" departLane="1" arrivalLane="1" departSpeed="5" />
    <vehicle id="N_S_95" type="non-CV" route="N_S" depart="385.0" departLane="1" arrivalLane="1" departSpeed="5" />
    <vehicle id="W_E_96" type="non-CV" route="W_E" depart="389.0" departLane="1" arrivalLane="1" departSpeed="5" />
    <vehicle id="S_E_97" type="non-CV" route="S_E" depart="390.0" departLane="0" arrivalLane="0" departSpeed="5" />
    <vehicle id="N_W_98" type="non-CV" route="N_W" depart="391.0" departLane="0" arrivalLane="0" departSpeed="5" />
    <vehicle id="W_S_99" type="non-CV" route="W_S" depart="393.0" departLane="0" arrivalLane="0" departSpeed="5" />
    <vehicle id="S_N_100" type="non-CV" route="S_N" depart="395.0" departLane="1" arrivalLane="1" departSpeed="5" />
    <vehicle id="W_E_101" type="non-CV" route="W_E" depart="397.0" departLane="1" arrivalLane="1" departSpeed="5" />
    <vehicle id="S_N_102" type="non-CV" route="S_N" depart="402.0" departLane="1" arrivalLane="1" departSpeed="5" />
    <vehicle id="N_S_103" type="non-CV" route="N_S" depart="409.0" departLane="1" arrivalLane="1" departSpeed="5" />
    <vehicle id="E_S_104" type="non-CV" route="E_S" depart="413.0" departLane="2" arrivalLane="2" departSpeed="5" />
    <vehicle id="N_S_105" type="non-CV" route="N_S" depart="418.0" departLane="1" arrivalLane="1" departSpeed="5" />
    <vehicle id="N_W_106" type="non-CV" route="N_W" depart="419.0" departLane="0" arrivalLane="0" departSpeed="5" />
    <vehicle id="N_S_107" type="non-CV" route="N_S" depart="419.0" departLane="1" arrivalLane="1" departSpeed="5" />
    <vehicle id="S_N_108" type="non-CV" route="S_N" depart="419.0" departLane="1" arrivalLane="1" departSpeed="5" />
    <vehicle id="S_N_109" type="non-CV" route="S_N" depart="420.0" departLane="1" arrivalLane="1" departSpeed="5" />
    <vehicle id="S_N_110" type="non-CV" route="S_N" depart="424.0" departLane="1" arrivalLane="1" departSpeed="5" />
    <vehicle id="N_W_111" type="non-CV" route="N_W" depart="425.0" departLane="0" arrivalLane="0" departSpeed="5" />
    <vehicle id="W_S_112" type="non-CV" route="W_S" depart="426.0" departLane="0" arrivalLane="0" departSpeed="5" />
    <vehicle id="N_E_113" type="non-CV" route="N_E" depart="429.0" departLane="2" arrivalLane="2" departSpeed="5" />
    <vehicle id="S_E_114" type="non-CV" route="S_E" depart="433.0" departLane="0" arrivalLane="0" departSpeed="5" />
    <vehicle id="W_N_115" type="non-CV" route="W_N" depart="442.0" departLane="2" arrivalLane="2" departSpeed="5" />
    <vehicle id="S_E_116" type="non-CV" route="S_E" depart="443.0" departLane="0" arrivalLane="0" departSpeed="5" />
    <vehicle id="N_W_117" type="non-CV" route="N_W" depart="444.0" departLane="0" arrivalLane="0" departSpeed="5" />
    <vehicle id="S_E_118" type="non-CV" route="S_E" depart="445.0" departLane="0" arrivalLane="0" departSpeed="5" />
    <vehicle id="S_W_119" type="non-CV" route="S_W" depart="446.0" departLane="2" arrivalLane="2" departSpeed="5" />
    <vehicle id="E_W_120" type="non-CV" route="E_W" depart="447.0" departLane="1" arrivalLane="1" departSpeed="5" />
    <vehicle id="N_S_121" type="non-CV" route="N_S" depart="448.0" departLane="1" arrivalLane="1" departSpeed="5" />
    <vehicle id="W_N_122" type="non-CV" route="W_N" depart="448.0" departLane="2" arrivalLane="2" departSpeed="5" />
    <vehicle id="W_E_123" type="non-CV" route="W_E" depart="450.0" departLane="1" arrivalLane="1" departSpeed="5" />
    <vehicle id="E_N_124" type="non-CV" route="E_N" depart="452.0" departLane="0" arrivalLane="0" departSpeed="5" />
    <vehicle id="W_N_125" type="non-CV" route="W_N" depart="453.0" departLane="2" arrivalLane="2" departSpeed="5" />
    <vehicle id="W_E_126" type="non-CV" route="W_E" depart="460.0" departLane="1" arrivalLane="1" departSpeed="5" />
    <vehicle id="S_W_127" type="non-CV" route="S_W" depart="460.0" departLane="2" arrivalLane="2" departSpeed="5" />
    <vehicle id="S_N_128" type="non-CV" route="S_N" depart="460.0" departLane="1" arrivalLane="1" departSpeed="5" />
    <vehicle id="W_E_129" type="non-CV" route="W_E" depart="461.0" departLane="1" arrivalLane="1" departSpeed="5" />
    <vehicle id="S_N_130" type="non-CV" route="S_N" depart="461.0" departLane="1" arrivalLane="1" departSpeed="5" />
    <vehicle id="N_E_131" type="non-CV" route="N_E" depart="462.0" departLane="2" arrivalLane="2" departSpeed="5" />
    <vehicle id="W_N_132" type="non-CV" route="W_N" depart="463.0" departLane="2" arrivalLane="2" departSpeed="5" />
    <vehicle id="E_N_133" type="non-CV" route="E_N" depart="464.0" departLane="0" arrivalLane="0" departSpeed="5" />
    <vehicle id="N_W_134" type="non-CV" route="N_W" depart="465.0" departLane="0" arrivalLane="0" departSpeed="5" />
    <vehicle id="W_E_135" type="non-CV" route="W_E" depart="468.0" departLane="1" arrivalLane="1" departSpeed="5" />
    <vehicle id="S_E_136" type="non-CV" route="S_E" depart="471.0" departLane="0" arrivalLane="0" departSpeed="5" />
    <vehicle id="W_E_137" type="non-CV" route="W_E" depart="475.0" departLane="1" arrivalLane="1" departSpeed="5" />
    <vehicle id="E_N_138" type="non-CV" route="E_N" depart="477.0" departLane="0" arrivalLane="0" departSpeed="5" />
    <vehicle id="N_S_139" type="non-CV" route="N_S" depart="485.0" departLane="1" arrivalLane="1" departSpeed="5" />
    <vehicle id="S_E_140" type="non-CV" route="S_E" depart="485.0" departLane="0" arrivalLane="0" departSpeed="5" />
    <vehicle id="E_N_141" type="non-CV" route="E_N" depart="485.0" departLane="0" arrivalLane="0" departSpeed="5" />
    <vehicle id="N_S_142" type="non-CV" route="N_S" depart="486.0" departLane="1" arrivalLane="1" departSpeed="5" />
    <vehicle id="S_W_143" type="non-CV" route="S_W" depart="487.0" departLane="2" arrivalLane="2" departSpeed="5" />
    <vehicle id="N_W_144" type="non-CV" route="N_W" depart="488.0" departLane="0" arrivalLane="0" departSpeed="5" />
    <vehicle id="N_E_145" type="non-CV" route="N_E" depart="493.0" departLane="2" arrivalLane="2" departSpeed="5" />
    <vehicle id="N_W_146" type="non-CV" route="N_W" depart="496.0" departLane="0" arrivalLane="0" departSpeed="5" />
    <vehicle id="W_E_147" type="non-CV" route="W_E" depart="496.0" departLane="1" arrivalLane="1" departSpeed="5" />
    <vehicle id="N_S_148" type="non-CV" route="N_S" depart="498.0" departLane="1" arrivalLane="1" departSpeed="5" />
    <vehicle id="N_W_149" type="non-CV" route="N_W" depart="499.0" departLane="0" arrivalLane="0" departSpeed="5" />
    <vehicle id="E_N_150" type="non-CV" route="E_N" depart="501.0" departLane="0" arrivalLane="0" departSpeed="5" />
    <vehicle id="E_S_151" type="non-CV" route="E_S" depart="503.0" departLane="2" arrivalLane="2" departSpeed="5" />
    <vehicle id="E_N_152" type="non-CV" route="E_N" depart="503.0" departLane="0" arrivalLane="0" departSpeed="5" />
    <vehicle id="W_N_153" type="non-CV" route="W_N" depart="503.0" departLane="2" arrivalLane="2" departSpeed="5" />
    <vehicle id="W_N_154" type="non-CV" route="W_N" depart="505.0" departLane="2" arrivalLane="2" departSpeed="5" />
    <vehicle id="S_N_155" type="non-CV" route="S_N" depart="507.0" departLane="1" arrivalLane="1" departSpeed="5" />
    <vehicle id="E_S_156" type="non-CV" route="E_S" depart="509.0" departLane="2" arrivalLane="2" departSpeed="5" />
    <vehicle id="N_S_157" type="non-CV" route="N_S" depart="510.0" departLane="1" arrivalLane="1" departSpeed="5" />
    <vehicle id="N_E_158" type="non-CV" route="N_E" depart="511.0" departLane="2" arrivalLane="2" departSpeed="5" />
    <vehicle id="N_E_159" type="non-CV" route="N_E" depart="512.0" departLane="2" arrivalLane="2" departSpeed="5" />
    <vehicle id="E_S_160" type="non-CV" route="E_S" depart="512.0" departLane="2" arrivalLane="2" departSpeed="5" />
    <vehicle id="N_S_161" type="non-CV" route="N_S" depart="513.0" departLane="1" arrivalLane="1" departSpeed="5" />
    <vehicle id="E_S_162" type="non-CV" route="E_S" depart="513.0" departLane="2" arrivalLane="2" departSpeed="5" />
    <vehicle id="W_N_163" type="non-CV" route="W_N" depart="517.0" departLane="2" arrivalLane="2" departSpeed="5" />
    <vehicle id="E_N_164" type="non-CV" route="E_N" depart="518.0" departLane="0" arrivalLane="0" departSpeed="5" />
    <vehicle id="W_E_165" type="non-CV" route="W_E" depart="518.0" departLane="1" arrivalLane="1" departSpeed="5" />
    <vehicle id="S_W_166" type="non-CV" route="S_W" depart="520.0" departLane="2" arrivalLane="2" departSpeed="5" />
    <vehicle id="E_W_167" type="non-CV" route="E_W" depart="520.0" departLane="1" arrivalLane="1" departSpeed="5" />
    <vehicle id="W_E_168" type="non-CV" route="W_E" depart="522.0" departLane="1" arrivalLane="1" departSpeed="5" />
    <vehicle id="S_N_169" type="non-CV" route="S_N" depart="523.0" departLane="1" arrivalLane="1" departSpeed="5" />
    <vehicle id="S_W_170" type="non-CV" route="S_W" depart="524.0" departLane="2" arrivalLane="2" departSpeed="5" />
    <vehicle id="N_W_171" type="non-CV" route="N_W" depart="531.0" departLane="0" arrivalLane="0" departSpeed="5" />
    <vehicle id="E_N_172" type="non-CV" route="E_N" depart="532.0" departLane="0" arrivalLane="0" departSpeed="5" />
    <vehicle id="W_N_173" type="non-CV" route="W_N" depart="532.0" departLane="2" arrivalLane="2" departSpeed="5" />
    <vehicle id="E_W_174" type="non-CV" route="E_W" depart="533.0" departLane="1" arrivalLane="1" departSpeed="5" />
    <vehicle id="E_S_175" type="non-CV" route="E_S" depart="534.0" departLane="2" arrivalLane="2" departSpeed="5" />
    <vehicle id="W_S_176" type="non-CV" route="W_S" depart="535.0" departLane="0" arrivalLane="0" departSpeed="5" />
    <vehicle id="N_E_177" type="non-CV" route="N_E" depart="539.0" departLane="2" arrivalLane="2" departSpeed="5" />
    <vehicle id="W_N_178" type="non-CV" route="W_N" depart="544.0" departLane="2" arrivalLane="2" departSpeed="5" />
    <vehicle id="W_E_179" type="non-CV" route="W_E" depart="545.0" departLane="1" arrivalLane="1" departSpeed="5" />
    <vehicle id="E_S_180" type="non-CV" route="E_S" depart="549.0" departLane="2" arrivalLane="2" departSpeed="5" />
    <vehicle id="W_S_181" type="non-CV" route="W_S" depart="551.0" departLane="0" arrivalLane="0" departSpeed="5" />
    <vehicle id="W_E_182" type="non-CV" route="W_E" depart="551.0" departLane="1" arrivalLane="1" departSpeed="5" />
    <vehicle id="N_W_183" type="non-CV" route="N_W" depart="552.0" departLane="0" arrivalLane="0" departSpeed="5" />
    <vehicle id="S_E_184" type="non-CV" route="S_E" depart="553.0" departLane="0" arrivalLane="0" departSpeed="5" />
    <vehicle id="S_N_185" type="non-CV" route="S_N" depart="556.0" departLane="1" arrivalLane="1" departSpeed="5" />
    <vehicle id="E_N_186" type="non-CV" route="E_N" depart="556.0" departLane="0" arrivalLane="0" departSpeed="5" />
    <vehicle id="N_S_187" type="non-CV" route="N_S" depart="558.0" departLane="1" arrivalLane="1" departSpeed="5" />
    <vehicle id="W_S_188" type="non-CV" route="W_S" depart="560.0" departLane="0" arrivalLane="0" departSpeed="5" />
    <vehicle id="E_W_189" type="non-CV" route="E_W" depart="562.0" departLane="1" arrivalLane="1" departSpeed="5" />
    <vehicle id="W_S_190" type="non-CV" route="W_S" depart="563.0" departLane="0" arrivalLane="0" departSpeed="5" />
    <vehicle id="S_N_191" type="non-CV" route="S_N" depart="563.0" departLane="1" arrivalLane="1" departSpeed="5" />
    <vehicle id="E_N_192" type="non-CV" route="E_N" depart="564.0" departLane="0" arrivalLane="0" departSpeed="5" />
    <vehicle id="S_N_193" type="non-CV" route="S_N" depart="565.0" departLane="1" arrivalLane="1" departSpeed="5" />
    <vehicle id="E_S_194" type="non-CV" route="E_S" depart="566.0" departLane="2" arrivalLane="2" departSpeed="5" />
    <vehicle id="S_N_195" type="non-CV" route="S_N" depart="567.0" departLane="1" arrivalLane="1" departSpeed="5" />
    <vehicle id="N_S_196" type="non-CV" route="N_S" depart="568.0" departLane="1" arrivalLane="1" departSpeed="5" />
    <vehicle id="S_W_197" type="non-CV" route="S_W" depart="571.0" departLane="2" arrivalLane="2" departSpeed="5" />
    <vehicle id="W_N_198" type="non-CV" route="W_N" depart="574.0" departLane="2" arrivalLane="2" departSpeed="5" />
    <vehicle id="N_S_199" type="non-CV" route="N_S" depart="575.0" departLane="1" arrivalLane="1" departSpeed="5" />
    <vehicle id="E_W_200" type="non-CV" route="E_W" depart="576.0" departLane="1" arrivalLane="1" departSpeed="5" />
    <vehicle id="N_W_201" type="non-CV" route="N_W" depart="577.0" departLane="0" arrivalLane="0" departSpeed="5" />
    <vehicle id="W_S_202" type="non-CV" route="W_S" depart="579.0" departLane="0" arrivalLane="0" departSpeed="5" />
    <vehicle id="S_E_203" type="non-CV" route="S_E" depart="581.0" departLane="0" arrivalLane="0" departSpeed="5" />
    <vehicle id="E_S_204" type="non-CV" route="E_S" depart="581.0" departLane="2" arrivalLane="2" departSpeed="5" />
    <vehicle id="W_E_205" type="non-CV" route="W_E" depart="584.0" departLane="1" arrivalLane="1" departSpeed="5" />
    <vehicle id="S_N_206" type="non-CV" route="S_N" depart="585.0" departLane="1" arrivalLane="1" departSpeed="5" />
    <vehicle id="E_W_207" type="non-CV" route="E_W" depart="586.0" departLane="1" arrivalLane="1" departSpeed="5" />
    <vehicle id="N_W_208" type="non-CV" route="N_W" depart="588.0" departLane="0" arrivalLane="0" departSpeed="5" />
    <vehicle id="N_S_209" type="non-CV" route="N_S" depart="590.0" departLane="1" arrivalLane="1" departSpeed="5" />
    <vehicle id="E_S_210" type="non-CV" route="E_S" depart="592.0" departLane="2" arrivalLane="2" departSpeed="5" />
    <vehicle id="S_N_211" type="non-CV" route="S_N" depart="592.0" departLane="1" arrivalLane="1" departSpeed="5" />
    <vehicle id="N_W_212" type="non-CV" route="N_W" depart="592.0" departLane="0" arrivalLane="0" departSpeed="5" />
    <vehicle id="E_W_213" type="non-CV" route="E_W" depart="596.0" departLane="1" arrivalLane="1" departSpeed="5" />
    <vehicle id="E_W_214" type="non-CV" route="E_W" depart="596.0" departLane="1" arrivalLane="1" departSpeed="5" />
    <vehicle id="S_W_215" type="non-CV" route="S_W" depart="598.0" departLane="2" arrivalLane="2" departSpeed="5" />
    <vehicle id="S_N_216" type="non-CV" route="S_N" depart="599.0" departLane="1" arrivalLane="1" departSpeed="5" />
    <vehicle id="E_S_217" type="non-CV" route="E_S" depart="600.0" departLane="2" arrivalLane="2" departSpeed="5" />
    <vehicle id="E_S_218" type="non-CV" route="E_S" depart="601.0" departLane="2" arrivalLane="2" departSpeed="5" />
    <vehicle id="N_W_219" type="non-CV" route="N_W" depart="602.0" departLane="0" arrivalLane="0" departSpeed="5" />
    <vehicle id="N_W_220" type="non-CV" route="N_W" depart="605.0" departLane="0" arrivalLane="0" departSpeed="5" />
    <vehicle id="E_W_221" type="non-CV" route="E_W" depart="609.0" departLane="1" arrivalLane="1" departSpeed="5" />
    <vehicle id="W_N_222" type="non-CV" route="W_N" depart="610.0" departLane="2" arrivalLane="2" departSpeed="5" />
    <vehicle id="E_S_223" type="non-CV" route="E_S" depart="610.0" departLane="2" arrivalLane="2" departSpeed="5" />
    <vehicle id="S_N_224" type="non-CV" route="S_N" depart="611.0" departLane="1" arrivalLane="1" departSpeed="5" />