<routes>
            <vType id="CVs" color="cyan" maxSpeed="20" accel="2.5" decel="3" minGap="0.50" tau="1" scale ="1"/>
            <vType id="non-CV" color="magenta" maxSpeed="20" accel="2.5" decel="3" minGap="2.5" tau="1" />
    
            <vType id="t_catchup" minGap="0.50" color="red" tau="1" maxSpeed="20" accel="2.5" decel="3"/>
            <vType id="t_catchupFollower" minGap="0.50" color="blue" tau="0.1" maxSpeed="20" accel="2.5" decel="3"/>
            <vType id="t_follower" minGap="0.50" color="green" tau="0.1" maxSpeed="20" accel="2.5" decel="3"/>
            <vType id="t_leader" minGap="0.50" color="yellow" tau="1" maxSpeed="20" accel="2.5" decel="3"/>

            <route id="W_N" edges="W2TL TL2N"/>
            <route id="W_E" edges="W2TL TL2E"/>
            <route id="W_S" edges="W2TL TL2S"/>
            <route id="N_W" edges="N2TL TL2W"/>
            <route id="N_E" edges="N2TL TL2E"/>
            <route id="N_S" edges="N2TL TL2S"/>
            <route id="E_W" edges="E2TL TL2W"/>
            <route id="E_N" edges="E2TL TL2N"/>
            <route id="E_S" edges="E2TL TL2S"/>
            <route id="S_W" edges="S2TL TL2W"/>
            <route id="S_N" edges="S2TL TL2N"/>
            <route id="S_E" edges="S2TL TL2E"/>
            
            <flow id="f_0n" begin="0.00" departLane="0" arrivalLane="0" from="N2TL" to="TL2W" end="3600.00" probability="0.01111111111111" type="CVs" departSpeed="5"/>
            <flow id="f_1n" begin="0.00" departLane="1" arrivalLane="1" from="N2TL" to="TL2S" end="3600.00" probability="0.01111111111111" type="CVs" departSpeed="5"/>
            <flow id="f_2n" begin="0.00" departLane="2" arrivalLane="2" from="N2TL" to="TL2E" end="3600.00" probability="0.01111111111111" type="CVs" departSpeed="5"/>
            
            <flow id="f_0E" begin="0.00" departLane="0" arrivalLane="0" from="E2TL" to="TL2N" end="3600.00" probability="0.01111111111111" type="CVs" departSpeed="5"/>
            <flow id="f_1E" begin="0.00" departLane="1" arrivalLane="1" from="E2TL" to="TL2W" end="3600.00" probability="0.01111111111111" type="CVs" departSpeed="5"/>
            <flow id="f_2E" begin="0.00" departLane="2" arrivalLane="2" from="E2TL" to="TL2S" end="3600.00" probability="0.01111111111111" type="CVs" departSpeed="5"/>            
            
            <flow id="f_0S" begin="0.00" departLane="0" arrivalLane="0" from="S2TL" to="TL2E" end="3600.00" probability="0.01111111111111" type="CVs" departSpeed="5"/>
            <flow id="f_1S" begin="0.00" departLane="1" arrivalLane="1" from="S2TL" to="TL2N" end="3600.00" probability="0.01111111111111" type="CVs" departSpeed="5"/>
            <flow id="f_2S" begin="0.00" departLane="2" arrivalLane="2" from="S2TL" to="TL2W" end="3600.00" probability="0.01111111111111" type="CVs" departSpeed="5"/>

            <flow id="f_0W" begin="0.00" departLane="0" arrivalLane="0" from="W2TL" to="TL2S" end="3600.00" probability="0.01111111111111" type="CVs" departSpeed="5"/>
            <flow id="f_1W" begin="0.00" departLane="1" arrivalLane="1" from="W2TL" to="TL2E" end="3600.00" probability="0.01111111111111" type="CVs" departSpeed="5"/>
            <flow id="f_2W" begin="0.00" departLane="2" arrivalLane="2" from="W2TL" to="TL2N" end="3600.00" probability="0.01111111111111" type="CVs" departSpeed="5"/>




            
    <vehicle id="W_E_0" type="non-CV" route="W_E" depart="51.0" departLane="1" arrivalLane="1" departSpeed="5" />
    <vehicle id="W_E_1" type="non-CV" route="W_E" depart="61.0" departLane="1" arrivalLane="1" departSpeed="5" />
    <vehicle id="E_W_2" type="non-CV" route="E_W" depart="83.0" departLane="1" arrivalLane="1" departSpeed="5" />
    <vehicle id="E_W_3" type="non-CV" route="E_W" depart="91.0" departLane="1" arrivalLane="1" departSpeed="5" />
    <vehicle id="N_E_4" type="non-CV" route="N_E" depart="95.0" departLane="2" arrivalLane="2" departSpeed="5" />
    <vehicle id="W_E_5" type="non-CV" route="W_E" depart="107.0" departLane="1" arrivalLane="1" departSpeed="5" />
    <vehicle id="E_S_6" type="non-CV" route="E_S" depart="121.0" departLane="2" arrivalLane="2" departSpeed="5" />
    <vehicle id="S_N_7" type="non-CV" route="S_N" depart="122.0" departLane="1" arrivalLane="1" departSpeed="5" />
    <vehicle id="W_E_8" type="non-CV" route="W_E" depart="127.0" departLane="1" arrivalLane="1" departSpeed="5" />
    <vehicle id="N_W_9" type="non-CV" route="N_W" depart="129.0" departLane="0" arrivalLane="0" departSpeed="5" />
    <vehicle id="N_E_10" type="non-CV" route="N_E" depart="146.0" departLane="2" arrivalLane="2" departSpeed="5" />
    <vehicle id="E_W_11" type="non-CV" route="E_W" depart="150.0" departLane="1" arrivalLane="1" departSpeed="5" />
    <vehicle id="N_S_12" type="non-CV" route="N_S" depart="152.0" departLane="1" arrivalLane="1" departSpeed="5" />
    <vehicle id="E_N_13" type="non-CV" route="E_N" depart="153.0" departLane="0" arrivalLane="0" departSpeed="5" />
    <vehicle id="E_S_14" type="non-CV" route="E_S" depart="154.0" departLane="2" arrivalLane="2" departSpeed="5" />
    <vehicle id="S_W_15" type="non-CV" route="S_W" depart="155.0" departLane="2" arrivalLane="2" departSpeed="5" />
    <vehicle id="W_E_16" type="non-CV" route="W_E" depart="158.0" departLane="1" arrivalLane="1" departSpeed="5" />
    <vehicle id="N_S_17" type="non-CV" route="N_S" depart="161.0" departLane="1" arrivalLane="1" departSpeed="5" />
    <vehicle id="S_N_18" type="non-CV" route="S_N" depart="172.0" departLane="1" arrivalLane="1" departSpeed="5" />
    <vehicle id="N_S_19" type="non-CV" route="N_S" depart="174.0" departLane="1" arrivalLane="1" departSpeed="5" />
    <vehicle id="S_N_20" type="non-CV" route="S_N" depart="175.0" departLane="1" arrivalLane="1" departSpeed="5" />
    <vehicle id="S_N_21" type="non-CV" route="S_N" depart="180.0" departLane="1" arrivalLane="1" departSpeed="5" />
    <vehicle id="S_W_22" type="non-CV" route="S_W" depart="184.0" departLane="2" arrivalLane="2" departSpeed="5" />
    <vehicle id="S_E_23" type="non-CV" route="S_E" depart="185.0" departLane="0" arrivalLane="0" departSpeed="5" />
    <vehicle id="N_W_24" type="non-CV" route="N_W" depart="186.0" departLane="0" arrivalLane="0" departSpeed="5" />
    <vehicle id="E_W_25" type="non-CV" route="E_W" depart="187.0" departLane="1" arrivalLane="1" departSpeed="5" />
    <vehicle id="S_W_26" type="non-CV" route="S_W" depart="194.0" departLane="2" arrivalLane="2" departSpeed="5" />
    <vehicle id="W_E_27" type="non-CV" route="W_E" depart="194.0" departLane="1" arrivalLane="1" departSpeed="5" />
    <vehicle id="S_N_28" type="non-CV" route="S_N" depart="195.0" departLane="1" arrivalLane="1" departSpeed="5" />
    <vehicle id="S_W_29" type="non-CV" route="S_W" depart="209.0" departLane="2" arrivalLane="2" departSpeed="5" />
    <vehicle id="S_E_30" type="non-CV" route="S_E" depart="209.0" departLane="0" arrivalLane="0" departSpeed="5" />
    <vehicle id="N_S_31" type="non-CV" route="N_S" depart="212.0" departLane="1" arrivalLane="1" departSpeed="5" />
    <vehicle id="S_N_32" type="non-CV" route="S_N" depart="218.0" departLane="1" arrivalLane="1" departSpeed="5" />
    <vehicle id="N_S_33" type="non-CV" route="N_S" depart="219.0" departLane="1" arrivalLane="1" departSpeed="5" />
    <vehicle id="E_W_34" type="non-CV" route="E_W" depart="221.0" departLane="1" arrivalLane="1" departSpeed="5" />
    <vehicle id="S_E_35" type="non-CV" route="S_E" depart="233.0" departLane="0" arrivalLane="0" departSpeed="5" />
    <vehicle id="S_N_36" type="non-CV" route="S_N" depart="233.0" departLane="1" arrivalLane="1" departSpeed="5" />
    <vehicle id="S_W_37" type="non-CV" route="S_W" depart="234.0" departLane="2" arrivalLane="2" departSpeed="5" />
    <vehicle id="N_S_38" type="non-CV" route="N_S" depart="235.0" departLane="1" arrivalLane="1" departSpeed="5" />
    <vehicle id="E_W_39" type="non-CV" route="E_W" depart="237.0" departLane="1" arrivalLane="1" departSpeed="5" />
    <vehicle id="S_E_40" type="non-CV" route="S_E" depart="240.0" departLane="0" arrivalLane="0" departSpeed="5" />
    <vehicle id="E_N_41" type="non-CV" route="E_N" depart="244.0" departLane="0" arrivalLane="0" departSpeed="5" />
    <vehicle id="W_N_42" type="non-CV" route="W_N" depart="245.0" departLane="2" arrivalLane="2" departSpeed="5" />
    <vehicle id="N_S_43" type="non-CV" route="N_S" depart="252.0" departLane="1" arrivalLane="1" departSpeed="5" />
    <vehicle id="N_E_44" type="non-CV" route="N_E" depart="252.0" departLane="2" arrivalLane="2" departSpeed="5" />
    <vehicle id="N_W_45" type="non-CV" route="N_W" depart="253.0" departLane="0" arrivalLane="0" departSpeed="5" />
    <vehicle id="E_S_46" type="non-CV" route="E_S" depart="261.0" departLane="2" arrivalLane="2" departSpeed="5" />
    <vehicle id="N_S_47" type="non-CV" route="N_S" depart="262.0" departLane="1" arrivalLane="1" departSpeed="5" />
    <vehicle id="S_N_48" type="non-CV" route="S_N" depart="266.0" departLane="1" arrivalLane="1" departSpeed="5" />
    <vehicle id="E_N_49" type="non-CV" route="E_N" depart="268.0" departLane="0" arrivalLane="0" departSpeed="5" />
    <vehicle id="S_E_50" type="non-CV" route="S_E" depart="282.0" departLane="0" arrivalLane="0" departSpeed="5" />
    <vehicle id="S_E_51" type="non-CV" route="S_E" depart="283.0" departLane="0" arrivalLane="0" departSpeed="5" />
    <vehicle id="E_W_52" type="non-CV" route="E_W" depart="283.0" departLane="1" arrivalLane="1" departSpeed="5" />
    <vehicle id="S_N_53" type="non-CV" route="S_N" depart="288.0" departLane="1" arrivalLane="1" departSpeed="5" />
    <vehicle id="W_N_54" type="non-CV" route="W_N" depart="292.0" departLane="2" arrivalLane="2" departSpeed="5" />
    <vehicle id="S_E_55" type="non-CV" route="S_E" depart="294.0" departLane="0" arrivalLane="0" departSpeed="5" />
    <vehicle id="W_E_56" type="non-CV" route="W_E" depart="295.0" departLane="1" arrivalLane="1" departSpeed="5" />
    <vehicle id="W_E_57" type="non-CV" route="W_E" depart="312.0" departLane="1" arrivalLane="1" departSpeed="5" />
    <vehicle id="E_W_58" type="non-CV" route="E_W" depart="312.0" departLane="1" arrivalLane="1" departSpeed="5" />
    <vehicle id="N_W_59" type="non-CV" route="N_W" depart="316.0" departLane="0" arrivalLane="0" departSpeed="5" />
    <vehicle id="N_E_60" type="non-CV" route="N_E" depart="319.0" departLane="2" arrivalLane="2" departSpeed="5" />
    <vehicle id="W_N_61" type="non-CV" route="W_N" depart="323.0" departLane="2" arrivalLane="2" departSpeed="5" />
    <vehicle id="E_W_62" type="non-CV" route="E_W" depart="326.0" departLane="1" arrivalLane="1" departSpeed="5" />
    <vehicle id="S_W_63" type="non-CV" route="S_W" depart="327.0" departLane="2" arrivalLane="2" departSpeed="5" />
    <vehicle id="S_W_64" type="non-CV" route="S_W" depart="330.0" departLane="2" arrivalLane="2" departSpeed="5" />
    <vehicle id="N_S_65" type="non-CV" route="N_S" depart="330.0" departLane="1" arrivalLane="1" departSpeed="5" />
    <vehicle id="N_S_66" type="non-CV" route="N_S" depart="331.0" departLane="1" arrivalLane="1" departSpeed="5" />
    <vehicle id="S_E_67" type="non-CV" route="S_E" depart="333.0" departLane="0" arrivalLane="0" departSpeed="5" />
    <vehicle id="W_E_68" type="non-CV" route="W_E" depart="336.0" departLane="1" arrivalLane="1" departSpeed="5" />
    <vehicle id="S_E_69" type="non-CV" route="S_E" depart="337.0" departLane="0" arrivalLane="0" departSpeed="5" />
    <vehicle id="N_W_70" type="non-CV" route="N_W" depart="340.0" departLane="0" arrivalLane="0" departSpeed="5" />
    <vehicle id="W_N_71" type="non-CV" route="W_N" depart="341.0" departLane="2" arrivalLane="2" departSpeed="5" />
    <vehicle id="N_S_72" type="non-CV" route="N_S" depart="343.0" departLane="1" arrivalLane="1" departSpeed="5" />
    <vehicle id="S_W_73" type="non-CV" route="S_W" depart="347.0" departLane="2" arrivalLane="2" departSpeed="5" />
    <vehicle id="E_N_74" type="non-CV" route="E_N" depart="347.0" departLane="0" arrivalLane="0" departSpeed="5" />
    <vehicle id="S_W_75" type="non-CV" route="S_W" depart="347.0" departLane="2" arrivalLane="2" departSpeed="5" />
    <vehicle id="W_S_76" type="non-CV" route="W_S" depart="348.0" departLane="0" arrivalLane="0" departSpeed="5" />
    <vehicle id="W_E_77" type="non-CV" route="W_E" depart="352.0" departLane="1" arrivalLane="1" departSpeed="5" />
    <vehicle id="S_W_78" type="non-CV" route="S_W" depart="352.0" departLane="2" arrivalLane="2" departSpeed="5" />
    <vehicle id="N_S_79" type="non-CV" route="N_S" depart="352.0" departLane="1" arrivalLane="1" departSpeed="5" />
    <vehicle id="E_S_80" type="non-CV" route="E_S" depart="353.0" departLane="2" arrivalLane="2" departSpeed="5" />
    <vehicle id="N_S_81" type="non-CV" route="N_S" depart="355.0" departLane="1" arrivalLane="1" departSpeed="5" />
    <vehicle id="W_E_82" type="non-CV" route="W_E" depart="359.0" departLane="1" arrivalLane="1" departSpeed="5" />
    <vehicle id="W_S_83" type="non-CV" route="W_S" depart="361.0" departLane="0" arrivalLane="0" departSpeed="5" />
    <vehicle id="S_W_84" type="non-CV" route="S_W" depart="362.0" departLane="2" arrivalLane="2" departSpeed="5" />
    <vehicle id="W_S_85" type="non-CV" route="W_S" depart="364.0" departLane="0" arrivalLane="0" departSpeed="5" />
    <vehicle id="W_N_86" type="non-CV" route="W_N" depart="365.0" departLane="2" arrivalLane="2" departSpeed="5" />
    <vehicle id="E_W_87" type="non-CV" route="E_W" depart="366.0" departLane="1" arrivalLane="1" departSpeed="5" />
    <vehicle id="N_E_88" type="non-CV" route="N_E" depart="372.0" departLane="2" arrivalLane="2" departSpeed="5" />
    <vehicle id="E_W_89" type="non-CV" route="E_W" depart="373.0" departLane="1" arrivalLane="1" departSpeed="5" />
    <vehicle id="E_W_90" type="non-CV" route="E_W" depart="375.0" departLane="1" arrivalLane="1" departSpeed="5" />
    <vehicle id="E_W_91" type="non-CV" route="E_W" depart="378.0" departLane="1" arrivalLane="1" departSpeed="5" />
    <vehicle id="S_W_92" type="non-CV" route="S_W" depart="380.0" departLane="2" arrivalLane="2" departSpeed="5" />
    <vehicle id="N_E_93" type="non-CV" route="N_E" depart="383.0" departLane="2" arrivalLane="2" departSpeed="5" />
    <vehicle id="S_W_94" type="non-CV" route="S_W" depart="387.0" departLane="2" arrivalLane="2" departSpeed="5" />
    <vehicle id="S_W_95" type="non-CV" route="S_W" depart="387.0" departLane="2" arrivalLane="2" departSpeed="5" />
    <vehicle id="S_N_96" type="non-CV" route="S_N" depart="390.0" departLane="1" arrivalLane="1" departSpeed="5" />
    <vehicle id="N_W_97" type="non-CV" route="N_W" depart="391.0" departLane="0" arrivalLane="0" departSpeed="5" />
    <vehicle id="W_N_98" type="non-CV" route="W_N" depart="392.0" departLane="2" arrivalLane="2" departSpeed="5" />
    <vehicle id="S_E_99" type="non-CV" route="S_E" depart="395.0" departLane="0" arrivalLane="0" departSpeed="5" />
    <vehicle id="S_N_100" type="non-CV" route="S_N" depart="397.0" departLane="1" arrivalLane="1" departSpeed="5" />
    <vehicle id="E_S_101" type="non-CV" route="E_S" depart="398.0" departLane="2" arrivalLane="2" departSpeed="5" />
    <vehicle id="S_N_102" type="non-CV" route="S_N" depart="405.0" departLane="1" arrivalLane="1" departSpeed="5" />
    <vehicle id="N_S_103" type="non-CV" route="N_S" depart="406.0" departLane="1" arrivalLane="1" departSpeed="5" />
    <vehicle id="N_S_104" type="non-CV" route="N_S" depart="408.0" departLane="1" arrivalLane="1" departSpeed="5" />
    <vehicle id="W_S_105" type="non-CV" route="W_S" depart="411.0" departLane="0" arrivalLane="0" departSpeed="5" />
    <vehicle id="E_S_106" type="non-CV" route="E_S" depart="415.0" departLane="2" arrivalLane="2" departSpeed="5" />
    <vehicle id="N_E_107" type="non-CV" route="N_E" depart="416.0" departLane="2" arrivalLane="2" departSpeed="5" />
    <vehicle id="E_W_108" type="non-CV" route="E_W" depart="416.0" departLane="1" arrivalLane="1" departSpeed="5" />
    <vehicle id="S_N_109" type="non-CV" route="S_N" depart="418.0" departLane="1" arrivalLane="1" departSpeed="5" />
    <vehicle id="W_E_110" type="non-CV" route="W_E" depart="420.0" departLane="1" arrivalLane="1" departSpeed="5" />
    <vehicle id="E_W_111" type="non-CV" route="E_W" depart="420.0" departLane="1" arrivalLane="1" departSpeed="5" />
    <vehicle id="W_N_112" type="non-CV" route="W_N" depart="425.0" departLane="2" arrivalLane="2" departSpeed="5" />
    <vehicle id="S_N_113" type="non-CV" route="S_N" depart="426.0" departLane="1" arrivalLane="1" departSpeed="5" />
    <vehicle id="W_S_114" type="non-CV" route="W_S" depart="427.0" departLane="0" arrivalLane="0" departSpeed="5" />
    <vehicle id="E_W_115" type="non-CV" route="E_W" depart="428.0" departLane="1" arrivalLane="1" departSpeed="5" />
    <vehicle id="W_S_116" type="non-CV" route="W_S" depart="429.0" departLane="0" arrivalLane="0" departSpeed="5" />
    <vehicle id="E_S_117" type="non-CV" route="E_S" depart="430.0" departLane="2" arrivalLane="2" departSpeed="5" />
    <vehicle id="N_S_118" type="non-CV" route="N_S" depart="440.0" departLane="1" arrivalLane="1" departSpeed="5" />
    <vehicle id="N_W_119" type="non-CV" route="N_W" depart="441.0" departLane="0" arrivalLane="0" departSpeed="5" />
    <vehicle id="W_E_120" type="non-CV" route="W_E" depart="441.0" departLane="1" arrivalLane="1" departSpeed="5" />
    <vehicle id="S_W_121" type="non-CV" route="S_W" depart="444.0" departLane="2" arrivalLane="2" departSpeed="5" />
    <vehicle id="E_W_122" type="non-CV" route="E_W" depart="444.0" departLane="1" arrivalLane="1" departSpeed="5" />
    <vehicle id="W_S_123" type="non-CV" route="W_S" depart="445.0" departLane="0" arrivalLane="0" departSpeed="5" />
    <vehicle id="E_W_124" type="non-CV" route="E_W" depart="447.0" departLane="1" arrivalLane="1" departSpeed="5" />
    <vehicle id="N_S_125" type="non-CV" route="N_S" depart="454.0" departLane="1" arrivalLane="1" departSpeed="5" />
    <vehicle id="E_W_126" type="non-CV" route="E_W" depart="455.0" departLane="1" arrivalLane="1" departSpeed="5" />
    <vehicle id="S_W_127" type="non-CV" route="S_W" depart="464.0" departLane="2" arrivalLane="2" departSpeed="5" />
    <vehicle id="N_W_128" type="non-CV" route="N_W" depart="468.0" departLane="0" arrivalLane="0" departSpeed="5" />
    <vehicle id="S_N_129" type="non-CV" route="S_N" depart="470.0" departLane="1" arrivalLane="1" departSpeed="5" />
    <vehicle id="N_S_130" type="non-CV" route="N_S" depart="471.0" departLane="1" arrivalLane="1" departSpeed="5" />
    <vehicle id="E_W_131" type="non-CV" route="E_W" depart="471.0" departLane="1" arrivalLane="1" departSpeed="5" />
    <vehicle id="W_E_132" type="non-CV" route="W_E" depart="472.0" departLane="1" arrivalLane="1" departSpeed="5" />
    <vehicle id="S_E_133" type="non-CV" route="S_E" depart="475.0" departLane="0" arrivalLane="0" departSpeed="5" />
    <vehicle id="N_W_134" type="non-CV" route="N_W" depart="477.0" departLane="0" arrivalLane="0" departSpeed="5" />
    <vehicle id="N_W_135" type="non-CV" route="N_W" depart="478.0" departLane="0" arrivalLane="0" departSpeed="5" />
    <vehicle id="W_N_136" type="non-CV" route="W_N" depart="479.0" departLane="2" arrivalLane="2" departSpeed="5" />
    <vehicle id="E_S_137" type="non-CV" route="E_S" depart="479.0" departLane="2" arrivalLane="2" departSpeed="5" />
    <vehicle id="W_S_138" type="non-CV" route="W_S" depart="480.0" departLane="0" arrivalLane="0" departSpeed="5" />
    <vehicle id="N_S_139" type="non-CV" route="N_S" depart="481.0" departLane="1" arrivalLane="1" departSpeed="5" />
    <vehicle id="W_S_140" type="non-CV" route="W_S" depart="486.0" departLane="0" arrivalLane="0" departSpeed="5" />
    <vehicle id="W_E_141" type="non-CV" route="W_E" depart="489.0" departLane="1" arrivalLane="1" departSpeed="5" />
    <vehicle id="E_W_142" type="non-CV" route="E_W" depart="490.0" departLane="1" arrivalLane="1" departSpeed="5" />
    <vehicle id="W_E_143" type="non-CV" route="W_E" depart="490.0" departLane="1" arrivalLane="1" departSpeed="5" />
    <vehicle id="E_N_144" type="non-CV" route="E_N" depart="494.0" departLane="0" arrivalLane="0" departSpeed="5" />
    <vehicle id="N_W_145" type="non-CV" route="N_W" depart="494.0" departLane="0" arrivalLane="0" departSpeed="5" />
    <vehicle id="S_W_146" type="non-CV" route="S_W" depart="495.0" departLane="2" arrivalLane="2" departSpeed="5" />
    <vehicle id="W_N_147" type="non-CV" route="W_N" depart="496.0" departLane="2" arrivalLane="2" departSpeed="5" />
    <vehicle id="N_S_148" type="non-CV" route="N_S" depart="496.0" departLane="1" arrivalLane="1" departSpeed="5" />
    <vehicle id="N_E_149" type="non-CV" route="N_E" depart="497.0" departLane="2" arrivalLane="2" departSpeed="5" />
    <vehicle id="N_S_150" type="non-CV" route="N_S" depart="497.0" departLane="1" arrivalLane="1" departSpeed="5" />
    <vehicle id="E_W_151" type="non-CV" route="E_W" depart="500.0" departLane="1" arrivalLane="1" departSpeed="5" />
    <vehicle id="W_E_152" type="non-CV" route="W_E" depart="503.0" departLane="1" arrivalLane="1" departSpeed="5" />
    <vehicle id="N_S_153" type="non-CV" route="N_S" depart="505.0" departLane="1" arrivalLane="1" departSpeed="5" />
    <vehicle id="E_S_154" type="non-CV" route="E_S" depart="506.0" departLane="2" arrivalLane="2" departSpeed="5" />
    <vehicle id="W_E_155" type="non-CV" route="W_E" depart="508.0" departLane="1" arrivalLane="1" departSpeed="5" />
    <vehicle id="S_W_156" type="non-CV" route="S_W" depart="508.0" departLane="2" arrivalLane="2" departSpeed="5" />
    <vehicle id="S_W_157" type="non-CV" route="S_W" depart="509.0" departLane="2" arrivalLane="2" departSpeed="5" />
    <vehicle id="S_N_158" type="non-CV" route="S_N" depart="515.0" departLane="1" arrivalLane="1" departSpeed="5" />
    <vehicle id="N_E_159" type="non-CV" route="N_E" depart="518.0" departLane="2" arrivalLane="2" departSpeed="5" />
    <vehicle id="S_N_160" type="non-CV" route="S_N" depart="524.0" departLane="1" arrivalLane="1" departSpeed="5" />
    <vehicle id="E_W_161" type="non-CV" route="E_W" depart="527.0" departLane="1" arrivalLane="1" departSpeed="5" />
    <vehicle id="N_E_162" type="non-CV" route="N_E" depart="529.0" departLane="2" arrivalLane="2" departSpeed="5" />
    <vehicle id="N_S_163" type="non-CV" route="N_S" depart="530.0" departLane="1" arrivalLane="1" departSpeed="5" />
    <vehicle id="N_W_164" type="non-CV" route="N_W" depart="534.0" departLane="0" arrivalLane="0" departSpeed="5" />
    <vehicle id="S_N_165" type="non-CV" route="S_N" depart="537.0" departLane="1" arrivalLane="1" departSpeed="5" />
    <vehicle id="W_E_166" type="non-CV" route="W_E" depart="538.0" departLane="1" arrivalLane="1" departSpeed="5" />
    <vehicle id="E_N_167" type="non-CV" route="E_N" depart="542.0" departLane="0" arrivalLane="0" departSpeed="5" />
    <vehicle id="N_W_168" type="non-CV" route="N_W" depart="545.0" departLane="0" arrivalLane="0" departSpeed="5" />
    <vehicle id="S_N_169" type="non-CV" route="S_N" depart="546.0" departLane="1" arrivalLane="1" departSpeed="5" />
    <vehicle id="W_N_170" type="non-CV" route="W_N" depart="548.0" departLane="2" arrivalLane="2" departSpeed="5" />
    <vehicle id="W_N_171" type="non-CV" route="W_N" depart="551.0" departLane="2" arrivalLane="2" departSpeed="5" />
    <vehicle id="W_E_172" type="non-CV" route="W_E" depart="552.0" departLane="1" arrivalLane="1" departSpeed="5" />
    <vehicle id="N_S_173" type="non-CV" route="N_S" depart="554.0" departLane="1" arrivalLane="1" departSpeed="5" />
    <vehicle id="E_N_174" type="non-CV" route="E_N" depart="554.0" departLane="0" arrivalLane="0" departSpeed="5" />
    <vehicle id="W_S_175" type="non-CV" route="W_S" depart="556.0" departLane="0" arrivalLane="0" departSpeed="5" />
    <vehicle id="W_N_176" type="non-CV" route="W_N" depart="556.0" departLane="2" arrivalLane="2" departSpeed="5" />
    <vehicle id="S_N_177" type="non-CV" route="S_N" depart="557.0" departLane="1" arrivalLane="1" departSpeed="5" />
    <vehicle id="E_N_178" type="non-CV" route="E_N" depart="564.0" departLane="0" arrivalLane="0" departSpeed="5" />
    <vehicle id="E_W_179" type="non-CV" route="E_W" depart="565.0" departLane="1" arrivalLane="1" departSpeed="5" />
    <vehicle id="N_E_180" type="non-CV" route="N_E" depart="567.0" departLane="2" arrivalLane="2" departSpeed="5" />
    <vehicle id="N_S_181" type="non-CV" route="N_S" depart="576.0" departLane="1" arrivalLane="1" departSpeed="5" />
    <vehicle id="W_S_182" type="non-CV" route="W_S" depart="577.0" departLane="0" arrivalLane="0" departSpeed="5" />
    <vehicle id="S_W_183" type="non-CV" route="S_W" depart="578.0" departLane="2" arrivalLane="2" departSpeed="5" />
    <vehicle id="N_S_184" type="non-CV" route="N_S" depart="579.0" departLane="1" arrivalLane="1" departSpeed="5" />
    <vehicle id="N_E_185" type="non-CV" route="N_E" depart="580.0" departLane="2" arrivalLane="2" departSpeed="5" />
    <vehicle id="E_N_186" type="non-CV" route="E_N" depart="580.0" departLane="0" arrivalLane="0" departSpeed="5" />
    <vehicle id="E_W_187" type="non-CV" route="E_W" depart="583.0" departLane="1" arrivalLane="1" departSpeed="5" />
    <vehicle id="W_E_188" type="non-CV" route="W_E" depart="583.0" departLane="1" arrivalLane="1" departSpeed="5" />
    <vehicle id="W_E_189" type="non-CV" route="W_E" depart="584.0" departLane="1" arrivalLane="1" departSpeed="5" />
    <vehicle id="W_E_190" type="non-CV" route="W_E" depart="584.0" departLane="1" arrivalLane="1" departSpeed="5" />
    <vehicle id="E_W_191" type="non-CV" route="E_W" depart="585.0" departLane="1" arrivalLane="1" departSpeed="5" />
    <vehicle id="W_E_192" type="non-CV" route="W_E" depart="586.0" departLane="1" arrivalLane="1" departSpeed="5" />
    <vehicle id="S_W_193" type="non-CV" route="S_W" depart="586.0" departLane="2" arrivalLane="2" departSpeed="5" />
    <vehicle id="E_W_194" type="non-CV" route="E_W" depart="587.0" departLane="1" arrivalLane="1" departSpeed="5" />
    <vehicle id="W_E_195" type="non-CV" route="W_E" depart="587.0" departLane="1" arrivalLane="1" departSpeed="5" />
    <vehicle id="W_S_196" type="non-CV" route="W_S" depart="588.0" departLane="0" arrivalLane="0" departSpeed="5" />
    <vehicle id="W_E_197" type="non-CV" route="W_E" depart="588.0" departLane="1" arrivalLane="1" departSpeed="5" />
    <vehicle id="W_N_198" type="non-CV" route="W_N" depart="591.0" departLane="2" arrivalLane="2" departSpeed="5" />
    <vehicle id="E_S_199" type="non-CV" route="E_S" depart="593.0" departLane="2" arrivalLane="2" departSpeed="5" />
    <vehicle id="E_W_200" type="non-CV" route="E_W" depart="593.0" departLane="1" arrivalLane="1" departSpeed="5" />
    <vehicle id="W_E_201" type="non-CV" route="W_E" depart="593.0" departLane="1" arrivalLane="1" departSpeed="5" />
    <vehicle id="W_E_202" type="non-CV" route="W_E" depart="595.0" departLane="1" arrivalLane="1" departSpeed="5" />
    <vehicle id="S_N_203" type="non-CV" route="S_N" depart="599.0" departLane="1" arrivalLane="1" departSpeed="5" />
    <vehicle id="E_W_204" type="non-CV" route="E_W" depart="600.0" departLane="1" arrivalLane="1" departSpeed="5" />
    <vehicle id="S_W_205" type="non-CV" route="S_W" depart="602.0" departLane="2" arrivalLane="2" departSpeed="5" />
    <vehicle id="S_N_206" type="non-CV" route="S_N" depart="602.0" departLane="1" arrivalLane="1" departSpeed="5" />
    <vehicle id="W_N_207" type="non-CV" route="W_N" depart="602.0" departLane="2" arrivalLane="2" departSpeed="5" />
    <vehicle id="N_E_208" type="non-CV" route="N_E" depart="603.0" departLane="2" arrivalLane="2" departSpeed="5" />
    <vehicle id="E_S_209" type="non-CV" route="E_S" depart="604.0" departLane="2" arrivalLane="2" departSpeed="5" />
    <vehicle id="E_W_210" type="non-CV" route="E_W" depart="605.0" departLane="1" arrivalLane="1" departSpeed="5" />
    <vehicle id="N_W_211" type="non-CV" route="N_W" depart="606.0" departLane="0" arrivalLane="0" departSpeed="5" />
    <vehicle id="S_N_212" type="non-CV" route="S_N" depart="607.0" departLane="1" arrivalLane="1" departSpeed="5" />
    <vehicle id="W_E_213" type="non-CV" route="W_E" depart="610.0" departLane="1" arrivalLane="1" departSpeed="5" />
    <vehicle id="S_N_214" type="non-CV" route="S_N" depart="611.0" departLane="1" arrivalLane="1" departSpeed="5" />
    <vehicle id="W_E_215" type="non-CV" route="W_E" depart="611.0" departLane="1" arrivalLane="1" departSpeed="5" />
    <vehicle id="N_E_216" type="non-CV" route="N_E" depart="612.0" departLane="2" arrivalLane="2" departSpeed="5" />
    <vehicle id="N_S_217" type="non-CV" route="N_S" depart="614.0" departLane="1" arrivalLane="1" departSpeed="5" />
    <vehicle id="S_E_218" type="non-CV" route="S_E" depart="615.0" departLane="0" arrivalLane="0" departSpeed="5" />
    <vehicle id="W_E_219" type="non-CV" route="W_E" depart="615.0" departLane="1" arrivalLane="1" departSpeed="5" />
    <vehicle id="W_E_220" type="non-CV" route="W_E" depart="616.0" departLane="1" arrivalLane="1" departSpeed="5" />
    <vehicle id="S_E_221" type="non-CV" route="S_E" depart="616.0" departLane="0" arrivalLane="0" departSpeed="5" />
    <vehicle id="E_N_222" type="non-CV" route="E_N" depart="617.0" departLane="0" arrivalLane="0" departSpeed="5" />
    <vehicle id="N_E_223" type="non-CV" route="N_E" depart="620.0" departLane="2" arrivalLane="2" departSpeed="5" />
    <vehicle id="N_S_224" type="non-CV" route="N_S" depart="620.0" departLane="1" arrivalLane="1" departSpeed="5" />
    <vehicle id="S_E_225" type="non-CV" route="S_E" depart="623.0" departLane="0" arrivalLane="0" departSpeed="5" />
    <vehicle id="E_S_226" type="non-CV" route="E_S" depart="627.0" departLane="2" arrivalLane="2" departSpeed="5" />
    <vehicle id="E_W_227" type="non-CV" route="E_W" depart="630.0" departLane="1" arrivalLane="1" departSpeed="5" />